3JW
 OpenBabel01312112013D

 43 46  0  0  0  0  0  0  0  0999 V2000
    2.7150    0.4720    0.4710 C   0  0  0  0  0  0  0  0  0  0  0  0
    3.8840    0.2530   -0.2770 C   0  0  0  0  0  0  0  0  0  0  0  0
    5.0840    0.8520    0.1540 C   0  0  0  0  0  0  0  0  0  0  0  0
    5.0610    1.6020    1.2540 N   0  0  0  0  0  0  0  0  0  0  0  0
    2.7940    1.2440    1.5540 N   0  0  0  0  0  0  0  0  0  0  0  0
   -3.1260    3.5970   -1.2720 C   0  0  0  0  0  0  0  0  0  0  0  0
   -2.5980    2.2350   -0.8170 C   0  0  0  0  0  0  0  0  0  0  0  0
   -3.9640    1.2530   -0.1390 S   0  0  0  0  0  0  0  0  0  0  0  0
   -4.4250    1.8160    1.0820 O   0  0  0  0  0  0  0  0  0  0  0  0
   -4.8750    0.8890   -1.1670 O   0  0  0  0  0  0  0  0  0  0  0  0
   -3.2620   -0.1780    0.3100 N   0  0  0  0  0  0  0  0  0  0  0  0
   -2.6270   -0.7110    1.5250 C   0  0  0  0  0  0  0  0  0  0  0  0
   -3.0040   -1.4770   -0.3290 C   0  0  0  0  0  0  0  0  0  0  0  0
   -1.8070   -1.6430    0.6220 C   0  0  0  0  0  0  0  0  0  0  0  0
   -1.6390   -3.0610    1.1720 C   0  0  0  0  0  0  0  0  0  0  0  0
   -0.9510   -3.8960    0.1750 C   0  0  0  0  0  0  0  0  0  0  0  0
   -0.4210   -4.5410   -0.5950 N   0  0  0  0  0  0  0  0  0  0  0  0
   -0.5550   -1.0590    0.1330 N   0  0  0  0  0  0  0  0  0  0  0  0
    0.4470   -0.5900    0.8990 C   0  0  0  0  0  0  0  0  0  0  0  0
   -0.1940   -0.9000   -1.2100 N   0  0  0  0  0  0  0  0  0  0  0  0
    0.9870   -0.3460   -1.2600 C   0  0  0  0  0  0  0  0  0  0  0  0
    1.4270   -0.1340    0.0630 C   0  0  0  0  0  0  0  0  0  0  0  0
    3.9420    1.7790    1.9240 C   0  0  0  0  0  0  0  0  0  0  0  0
    4.2140   -0.4950   -1.4870 C   0  0  0  0  0  0  0  0  0  0  0  0
    5.5270   -0.3160   -1.7090 C   0  0  0  0  0  0  0  0  0  0  0  0
    6.0580    0.4880   -0.7340 N   0  0  0  0  0  0  0  0  0  0  0  0
   -3.5620    4.1210   -0.4220 H   0  0  0  0  0  0  0  0  0  0  0  0
   -2.3050    4.1870   -1.6800 H   0  0  0  0  0  0  0  0  0  0  0  0
   -3.8860    3.4540   -2.0400 H   0  0  0  0  0  0  0  0  0  0  0  0
   -2.1620    1.7120   -1.6680 H   0  0  0  0  0  0  0  0  0  0  0  0
   -1.8380    2.3780   -0.0490 H   0  0  0  0  0  0  0  0  0  0  0  0
   -2.0200    0.0240    2.0550 H   0  0  0  0  0  0  0  0  0  0  0  0
   -3.3190   -1.2380    2.1810 H   0  0  0  0  0  0  0  0  0  0  0  0
   -3.7960   -2.2070   -0.1620 H   0  0  0  0  0  0  0  0  0  0  0  0
   -2.7200   -1.3960   -1.3780 H   0  0  0  0  0  0  0  0  0  0  0  0
   -1.0480   -3.0270    2.0880 H   0  0  0  0  0  0  0  0  0  0  0  0
   -2.6200   -3.4850    1.3880 H   0  0  0  0  0  0  0  0  0  0  0  0
    0.4720   -0.5760    1.9790 H   0  0  0  0  0  0  0  0  0  0  0  0
    1.5330   -0.0970   -2.1580 H   0  0  0  0  0  0  0  0  0  0  0  0
    3.9640    2.3940    2.8120 H   0  0  0  0  0  0  0  0  0  0  0  0
    3.5340   -1.0810   -2.0880 H   0  0  0  0  0  0  0  0  0  0  0  0
    6.0820   -0.7420   -2.5320 H   0  0  0  0  0  0  0  0  0  0  0  0
    6.9880    0.7590   -0.6820 H   0  0  0  0  0  0  0  0  0  0  0  0
  1  5  2  0  0  0  0
  1  2  1  0  0  0  0
  1 22  1  0  0  0  0
  2  3  2  0  0  0  0
  2 24  1  0  0  0  0
  3  4  1  0  0  0  0
  3 26  1  0  0  0  0
  4 23  2  0  0  0  0
  5 23  1  0  0  0  0
  6  7  1  0  0  0  0
  6 27  1  0  0  0  0
  6 28  1  0  0  0  0
  6 29  1  0  0  0  0
  7  8  1  0  0  0  0
  7 30  1  0  0  0  0
  7 31  1  0  0  0  0
  8 11  1  0  0  0  0
  8  9  2  0  0  0  0
  8 10  2  0  0  0  0
 11 12  1  0  0  0  0
 11 13  1  0  0  0  0
 12 14  1  0  0  0  0
 12 32  1  0  0  0  0
 12 33  1  0  0  0  0
 13 14  1  0  0  0  0
 13 34  1  0  0  0  0
 13 35  1  0  0  0  0
 14 18  1  0  0  0  0
 14 15  1  0  0  0  0
 15 16  1  0  0  0  0
 15 36  1  0  0  0  0
 15 37  1  0  0  0  0
 16 17  3  0  0  0  0
 18 19  1  0  0  0  0
 18 20  1  0  0  0  0
 19 22  2  0  0  0  0
 19 38  1  0  0  0  0
 20 21  2  0  0  0  0
 21 22  1  0  0  0  0
 21 39  1  0  0  0  0
 23 40  1  0  0  0  0
 24 25  2  0  0  0  0
 24 41  1  0  0  0  0
 25 26  1  0  0  0  0
 25 42  1  0  0  0  0
 26 43  1  0  0  0  0
M  END
